data_genice_CS2
#
#Data source:
#[ice 16] Falenty, A., Hansen, T. C. & Kuhs, W. F. Formation and properties of ice XVI obtained by emptying a type sII clathrate hydrate. Nature 516, 231-233 (2014).
#[C15] Dutour Sikirić, Mathieu, Olaf Delgado-Friedrichs, and Michel Deza. “Space Fullerenes: a Computer Search for New Frank-Kasper Structures” Acta Crystallographica Section A Foundations of Crystallography 66.Pt 5 (2010): 602–615.
#[sII] Jeffrey, G A. “Hydrate Inclusion Compounds.” Inclusion Compounds 1 (1984): 135–190.
#[CS2] Kosyakov, Viktor I, and T M Polyanskaya. “Using Structural Data for Estimating the Stability of Water Networks in Clathrate and Semiclathrate Hydrates.” Journal of Structural Chemistry 40.2 (1999): 239–245.
#[MTN] http://www.iza-structure.org/databases/
#
#Command line: ../../genice.x CS2 --nodep -c 0=Na -a 1=Cl --rep 1 1 2 --format cif2
_cell_length_a                17.120977156117426
_cell_length_b                17.120977156117426
_cell_length_c                34.24195431223485
_cell_angle_alpha             90.0
_cell_angle_beta              90.0
_cell_angle_gamma             90.0

_symmetry_cell_setting        'orthorhombic'
_symmetry_space_group_name_H-M   'P 1 '

loop_
  _symmetry_equiv_pos_as_xyz
X,Y,Z

loop_
_atom_site_label
_atom_site_fract_x
_atom_site_fract_y
_atom_site_fract_z
_atom_site_type_symbol
    O0    0.3157    0.9349    0.0590     O
    H1    0.2704    0.9118    0.0702     H
    H2    0.3543    0.8941    0.0595     H
    O3    0.9335    0.6286    0.2185     O
    H4    0.9795    0.6076    0.2068     H
    H5    0.8957    0.6295    0.1978     H
    O6    0.9296    0.9283    0.0667     O
    H7    0.9767    0.9132    0.0540     H
    H8    0.9142    0.9758    0.0538     H
    O9    0.3670    0.6878    0.0921     O
   H10    0.3888    0.6650    0.1149     H
   H11    0.3682    0.6465    0.0729     H
   O12    0.3239    0.6220    0.2148     O
   H13    0.2760    0.6433    0.2046     H
   H14    0.3111    0.5697    0.2217     H
   O15    0.8227    0.4292    0.0596     O
   H16    0.8376    0.4765    0.0725     H
   H17    0.7745    0.4145    0.0718     H
   O18    0.8741    0.3723    0.4366     O
   H19    0.9064    0.3414    0.4537     H
   H20    0.8433    0.4034    0.4538     H
   O21    0.3154    0.6321    0.4094     O
   H22    0.3386    0.6094    0.3862     H
   H23    0.3554    0.6296    0.4284     H
   O24    0.4310    0.1250    0.4073     O
   H25    0.4778    0.1455    0.4181     H
   H26    0.4429    0.0711    0.4018     H
   O27    0.2130    0.2140    0.3586     O
   H28    0.2667    0.2054    0.3521     H
   H29    0.2038    0.2676    0.3522     H
   O30    0.6286    0.4319    0.4654     O
   H31    0.6818    0.4438    0.4720     H
   H32    0.6070    0.4109    0.4889     H
   O33    0.6160    0.4298    0.1584     O
   H34    0.6420    0.4148    0.1352     H
   H35    0.6425    0.4770    0.1666     H
   O36    0.1332    0.8196    0.4088     O
   H37    0.1071    0.7723    0.4169     H
   H38    0.1068    0.8349    0.3856     H
   O39    0.2868    0.7870    0.3890     O
   H40    0.2961    0.7336    0.3961     H
   H41    0.2334    0.7959    0.3957     H
   O42    0.4260    0.4321    0.0640     O
   H43    0.4732    0.4105    0.0531     H
   H44    0.4394    0.4446    0.0902     H
   O45    0.2194    0.0344    0.2639     O
   H46    0.1866    0.0648    0.2800     H
   H47    0.2061   -0.0193    0.2703     H
   O48    0.6181    0.8202    0.4649     O
   H49    0.6446    0.7724    0.4574     H
   H50    0.6429    0.8357    0.4883     H
   O51    0.1780    0.8803    0.2838     O
   H52    0.2263    0.8556    0.2915     H
   H53    0.1633    0.8543    0.2605     H
   O54    0.1776    0.0659    0.1888     O
   H55    0.1902    0.0544    0.2149     H
   H56    0.2254    0.0876    0.1779     H
   O57    0.4673    0.4702    0.1392     O
   H58    0.5188    0.4568    0.1456     H
   H59    0.4352    0.4368    0.1559     H
   O60    0.9339    0.1261    0.1593     O
   H61    0.8937    0.1233    0.1785     H
   H62    0.9454    0.0724    0.1532     H
   O63    0.8726    0.8777    0.1873     O
   H64    0.9052    0.8435    0.2026     H
   H65    0.8425    0.8436    0.1715     H
   O66    0.1272    0.4348    0.2166     O
   H67    0.1292    0.3942    0.1974     H
   H68    0.1808    0.4453    0.2226     H
   O69    0.1820    0.8744    0.0895     O
   H70    0.1944    0.8208    0.0956     H
   H71    0.1613    0.8951    0.1130     H
   O72    0.4350    0.9261    0.3133     O
   H73    0.4134    0.9735    0.3029     H
   H74    0.4470    0.9384    0.3398     H
   O75    0.1225    0.3197    0.4689     O
   H76    0.1218    0.3573    0.4482     H
   H77    0.1423    0.2731    0.4571     H
   O78    0.6772    0.0690    0.4379     O
   H79    0.7253    0.0890    0.4274     H
   H80    0.6894    0.0554    0.4641     H
   O81    0.8188    0.8129    0.0650     O
   H82    0.8562    0.8534    0.0649     H
   H83    0.7719    0.8367    0.0545     H
   O84    0.8823    0.0673    0.3431     O
   H85    0.8599    0.0218    0.3316     H
   H86    0.8802    0.1060    0.3228     H
   O87    0.9701    0.9730    0.1421     O
   H88    0.9375    0.9398    0.1578     H
   H89    0.9576    0.9591    0.1159     H
   O90    0.0693    0.6847    0.4403     O
   H91    0.1074    0.6433    0.4399     H
   H92    0.0235    0.6619    0.4295     H
   O93    0.7141    0.7181    0.3615     O
   H94    0.7669    0.7054    0.3550     H
   H95    0.6832    0.6859    0.3446     H
   O96    0.8701    0.1850    0.0900     O
   H97    0.8913    0.1638    0.1139     H
   H98    0.8174    0.1968    0.0961     H
   O99    0.5313    0.5361    0.3567     O
  H100    0.5438    0.5443    0.3832     H
  H101    0.5451    0.4818    0.3519     H
  O102    0.6843    0.8739    0.3395     O
  H103    0.6623    0.8951    0.3629     H
  H104    0.6953    0.8205    0.3457     H
  O105    0.0663    0.8760    0.3416     O
  H106    0.1054    0.8776    0.3214     H
  H107    0.0562    0.9293    0.3475     H
  O108    0.5663    0.3791    0.3394     O
  H109    0.6073    0.3789    0.3209     H
  H110    0.5895    0.3577    0.3628     H
  O111    0.3213    0.3142    0.0660     O
  H112    0.3579    0.3546    0.0655     H
  H113    0.2737    0.3375    0.0551     H
  O114    0.3185    0.1276    0.1596     O
  H115    0.3403    0.1072    0.1360     H
  H116    0.3069    0.1811    0.1537     H
  O117    0.1165    0.4299    0.4101     O
  H118    0.1422    0.4141    0.3866     H
  H119    0.1432    0.4766    0.4179     H
  O120    0.8757    0.0654    0.0330     O
  H121    0.8735    0.1052    0.0526     H
  H122    0.8223    0.0544    0.0270     H
  O123    0.0668    0.0705    0.4336     O
  H124    0.1070    0.1077    0.4347     H
  H125    0.0896    0.0234    0.4448     H
  O126    0.8754    0.1834    0.2859     O
  H127    0.8548    0.1615    0.2625     H
  H128    0.9287    0.1962    0.2795     H
  O129    0.2874    0.2821    0.1431     O
  H130    0.2335    0.2943    0.1476     H
  H131    0.2960    0.2952    0.1163     H
  O132    0.3663    0.5698    0.0353     O
  H133    0.3920    0.5228    0.0429     H
  H134    0.3930    0.5860    0.0119     H
  O135    0.1220    0.6251    0.0643     O
  H136    0.1535    0.5934    0.0472     H
  H137    0.0919    0.6567    0.0471     H
  O138    0.8687    0.6802    0.3440     O
  H139    0.8898    0.7262    0.3320     H
  H140    0.8692    0.6418    0.3237     H
  O141    0.9640    0.4694    0.3891     O
  H142    0.9331    0.4367    0.4057     H
  H143    1.0168    0.4570    0.3957     H
  O144    0.6864    0.6807    0.4368     O
  H145    0.6963    0.6927    0.4105     H
  H146    0.6451    0.6414    0.4359     H
  O147    0.6791    0.3832    0.2854     O
  H148    0.6638    0.3579    0.2622     H
  H149    0.7271    0.3570    0.2931     H
  O150    0.4679    0.7819    0.4866     O
  H151    0.5204    0.7947    0.4793     H
  H152    0.4360    0.8131    0.4699     H
  O153    0.0660    0.1834    0.1888     O
  H154    0.1045    0.1413    0.1887     H
  H155    0.0205    0.1604    0.1787     H
  O156    0.3169    0.4345    0.3094     O
  H157    0.3582    0.3948    0.3098     H
  H158    0.3403    0.4790    0.3201     H
  O159    0.4298    0.6251    0.4655     O
  H160    0.4097    0.6047    0.4887     H
  H161    0.4433    0.6793    0.4719     H
  O162    0.5302    0.2138    0.0176     O
  H163    0.5433    0.2675    0.0219     H
  H164    0.5446    0.2041   -0.0089     H
  O165    0.6291    0.9284    0.2148     O
  H166    0.6082    0.9764    0.2044     H
  H167    0.6812    0.9409    0.2219     H
  O168    0.4318    0.8235    0.0601     O
  H169    0.4436    0.8100    0.0340     H
  H170    0.4101    0.7763    0.0713     H
  O171    0.7182    0.2184    0.1092     O
  H172    0.6853    0.1873    0.0928     H
  H173    0.7055    0.2712    0.1025     H
  O174    0.5623    0.3679    0.0336     O
  H175    0.5848    0.3907    0.0108     H
  H176    0.6033    0.3698    0.0528     H
  O177    0.1825    0.6854    0.1862     O
  H178    0.1437    0.6443    0.1853     H
  H179    0.1939    0.6958    0.1597     H
  O180    0.6801    0.1764    0.1858     O
  H181    0.6925    0.1897    0.1595     H
  H182    0.6600    0.2237    0.1969     H
  O183    0.0698    0.3794    0.0916     O
  H184    0.0572    0.4320    0.0977     H
  H185    0.0224    0.3582    0.0807     H
  O186    0.9343    0.3215    0.0595     O
  H187    0.8944    0.3588    0.0602     H
  H188    0.9107    0.2744    0.0707     H
  O189    0.0699    0.5701    0.1857     O
  H190    0.0908    0.5231    0.1962     H
  H191    0.0562    0.5571    0.1593     H
  O192    0.9683    0.2820    0.4859     O
  H193    0.9586    0.2298    0.4780     H
  H194    1.0220    0.2914    0.4788     H
  O195    0.5372    0.0335    0.1110     O
  H196    0.4838    0.0435    0.1036     H
  H197    0.5462   -0.0192    0.1035     H
  O198    0.8237    0.6305    0.1576     O
  H199    0.7757    0.6083    0.1684     H
  H200    0.8108    0.6821    0.1516     H
  O201    0.3732    0.0693    0.2863     O
  H202    0.3941    0.0897    0.2629     H
  H203    0.3196    0.0564    0.2799     H
  O204    0.1340    0.3168    0.1612     O
  H205    0.1075    0.2708    0.1683     H
  H206    0.1078    0.3345    0.1376     H
  O207    0.8659    0.5669    0.2863     O
  H208    0.8920    0.5208    0.2941     H
  H209    0.8927    0.5831    0.2627     H
  O210    0.9295    0.1325    0.4663     O
  H211    0.8928    0.1301    0.4463     H
  H212    0.9774    0.1108    0.4548     H
  O213    0.3720    0.3763    0.1879     O
  H214    0.4053    0.3420    0.2038     H
  H215    0.3430    0.3422    0.1725     H
  O216    0.2830    0.9651    0.4861     O
  H217    0.2928    1.0183    0.4790     H
  H218    0.2298    0.9562    0.4787     H
  O219    0.1797    0.3679    0.3427     O
  H220    0.1424    0.3700    0.3224     H
  H221    0.2265    0.3904    0.3315     H
  O222    0.8171    0.9357    0.3096     O
  H223    0.8555    0.8942    0.3100     H
  H224    0.7717    0.9130    0.3205     H
  O225    0.3778    0.8720    0.4383     O
  H226    0.3430    0.9040    0.4540     H
  H227    0.3443    0.8429    0.4221     H
  O228    0.8207    0.6187    0.4677     O
  H229    0.8590    0.6207    0.4473     H
  H230    0.7744    0.6397    0.4561     H
  O231    0.6262    0.1265    0.0617     O
  H232    0.5916    0.1565    0.0465     H
  H233    0.5925    0.0944    0.0780     H
  O234    0.6227    0.6267    0.3116     O
  H235    0.6554    0.5923    0.2959     H
  H236    0.5927    0.5927    0.3271     H
  O237    0.1800    0.5671    0.4393     O
  H238    0.1928    0.5546    0.4654     H
  H239    0.2275    0.5891    0.4286     H
  O240    0.5693    0.6807    0.1897     O
  H241    0.5569    0.6942    0.2161     H
  H242    0.5214    0.6607    0.1792     H
  O243    0.7765    0.9689    0.2344     O
  H244    0.7905    0.9561    0.2604     H
  H245    0.8096    0.9362    0.2184     H
  O246    0.1237    0.9273    0.1597     O
  H247    0.0702    0.9404    0.1532     H
  H248    0.1447    0.9740    0.1701     H
  O249    0.1767    0.1828    0.4366     O
  H250    0.1890    0.1944    0.4101     H
  H251    0.2242    0.1615    0.4471     H
  O252    0.3834    0.0696    0.0923     O
  H253    0.3809    0.1068    0.0723     H
  H254    0.3601    0.0226    0.0810     H
  O255    0.8775    0.6772    0.0353     O
  H256    0.8562    0.7242    0.0453     H
  H257    0.9305    0.6905    0.0283     H
  O258    0.7799    0.4630    0.4842     O
  H259    0.7945    0.5170    0.4791     H
  H260    0.7946    0.4545    0.5103     H
  O261    0.7180    0.5347    0.2638     O
  H262    0.7072    0.4812    0.2714     H
  H263    0.7702    0.5432    0.2716     H
  O264    0.9346    0.6250    0.4110     O
  H265    0.9457    0.5709    0.4048     H
  H266    0.9124    0.6456    0.3879     H
  O267    0.0661    0.3751    0.2842     O
  H268    0.0550    0.3217    0.2780     H
  H269    0.0883    0.3960    0.2609     H
  O270    0.2158    0.7196    0.1113     O
  H271    0.2678    0.7071    0.1046     H
  H272    0.1842    0.6870    0.0944     H
  O273    0.6806    0.8769    0.0334     O
  H274    0.6920    0.9313    0.0275     H
  H275    0.6423    0.8791    0.0531     H
  O276    0.8204    0.1201    0.2151     O
  H277    0.8074    0.0676    0.2221     H
  H278    0.7730    0.1414    0.2048     H
  O279    0.9664    0.7819    0.2334     O
  H280    0.9579    0.7280    0.2272     H
  H281    1.0199    0.7910    0.2269     H
  O282    0.6259    0.3166    0.4068     O
  H283    0.6785    0.3047    0.4013     H
  H284    0.6284    0.3557    0.4273     H
  O285    0.4304    0.3175    0.3078     O
  H286    0.4144    0.2717    0.3211     H
  H287    0.4780    0.3331    0.3209     H
  O288    0.3155    0.1184    0.4666     O
  H289    0.3567    0.1206    0.4471     H
  H290    0.3385    0.1394    0.4893     H
  O291    0.4723    0.2855    0.2343     O
  H292    0.4570    0.2312    0.2290     H
  H293    0.4578    0.2940    0.2602     H
  O294    0.1297    0.9350    0.4656     O
  H295    0.1292    0.8943    0.4466     H
  H296    0.1082    0.9115    0.4887     H
  O297    0.0305    0.7169    0.0165     O
  H298    0.0444    0.7710    0.0210     H
  H299    0.0440    0.7077   -0.0099     H
  O300    0.0638    0.8710    0.0344     O
  H301    0.0868    0.8922    0.0112     H
  H302    0.1049    0.8721    0.0533     H
  O303    0.4678    0.9702    0.3904     O
  H304    0.5196    0.9574    0.3972     H
  H305    0.4358    0.9366    0.4068     H
  O306    0.0374    0.0282    0.3586     O
  H307   -0.0166    0.0423    0.3538     H
  H308    0.0465    0.0433    0.3847     H
  O309    0.9283    0.4311    0.3152     O
  H310    0.9414    0.4434    0.3412     H
  H311    0.9764    0.4111    0.3040     H
  O312    0.4293    0.1297    0.2183     O
  H313    0.4767    0.1088    0.2068     H
  H314    0.3926    0.1294    0.1977     H
  O315    0.9270    0.8163    0.3111     O
  H316    0.9400    0.8035    0.2846     H
  H317    0.9739    0.8376    0.3217     H
  O318    0.2818    0.4695    0.2344     O
  H319    0.2957    0.4569    0.2606     H
  H320    0.3135    0.4355    0.2186     H
  O321    0.6179    0.9326    0.4084     O
  H322    0.6198    0.8946    0.4288     H
  H323    0.6398    0.9788    0.4197     H
  O324    0.3671    0.1867    0.3404     O
  H325    0.3688    0.1460    0.3214     H
  H326    0.3903    0.1642    0.3633     H
  O327    0.5337    0.7217    0.2644     O
  H328    0.4810    0.7088    0.2706     H
  H329    0.5645    0.6878    0.2806     H
  O330    0.3757    0.5646    0.3406     O
  H331    0.4290    0.5541    0.3464     H
  H332    0.3776    0.6049    0.3210     H
  O333    0.3749    0.1762    0.0337     O
  H334    0.4283    0.1880    0.0275     H
  H335    0.3548    0.2234    0.0446     H
  O336    0.8201    0.1252    0.4107     O
  H337    0.8410    0.1043    0.3873     H
  H338    0.8058    0.1781    0.4040     H
  O339    0.7180    0.0303    0.0158     O
  H340    0.7048    0.0427   -0.0103     H
  H341    0.6849    0.0636    0.0315     H
  O342    0.2134    0.5289    0.0169     O
  H343    0.2044    0.5431   -0.0097     H
  H344    0.2668    0.5432    0.0216     H
  O345    0.3837    0.6819    0.2836     O
  H346    0.3573    0.7289    0.2912     H
  H347    0.3580    0.6660    0.2601     H
  O348    0.5659    0.1817    0.4394     O
  H349    0.6065    0.1440    0.4388     H
  H350    0.5891    0.2281    0.4283     H
  O351    0.0325    0.2232    0.2654     O
  H352    0.0438    0.2083    0.2390     H
  H353    0.0634    0.1887    0.2810     H
  O354    0.7862    0.7780    0.1418     O
  H355    0.7950    0.7918    0.1154     H
  H356    0.7322    0.7922    0.1466     H
  O357    0.5693    0.0662    0.1866     O
  H358    0.5578    0.0546    0.1597     H
  H359    0.6079    0.1060    0.1855     H
  O360    0.4324    0.6264    0.1592     O
  H361    0.3939    0.6236    0.1783     H
  H362    0.4443    0.5715    0.1530     H
  O363    0.5718    0.8829    0.0894     O
  H364    0.5860    0.8572    0.1129     H
  H365    0.5240    0.8579    0.0814     H
  O366    0.6288    0.8184    0.1570     O
  H367    0.6072    0.7719    0.1691     H
  H368    0.6289    0.8561    0.1772     H
  O369    0.5677    0.5679    0.4325     O
  H370    0.5846    0.5220    0.4460     H
  H371    0.5213    0.5837    0.4460     H
  O372    0.8810    0.5639    0.0921     O
  H373    0.8599    0.5879    0.1148     H
  H374    0.8802    0.6046    0.0726     H
  O375    0.0315    0.5289    0.1101     O
  H376   -0.0209    0.5423    0.1039     H
  H377    0.0628    0.5622    0.0936     H
  O378    0.8172    0.3161    0.3149     O
  H379    0.8402    0.2707    0.3040     H
  H380    0.8587    0.3545    0.3148     H
  O381    0.6242    0.3171    0.2176     O
  H382    0.6217    0.3562    0.1971     H
  H383    0.5715    0.3059    0.2234     H
  O384    0.1226    0.1225    0.3093     O
  H385    0.1543    0.1545    0.3261     H
  H386    0.0928    0.0909    0.3267     H
  O387    0.1831    0.3785    0.0333     O
  H388    0.1937    0.4313    0.0275     H
  H389    0.1429    0.3804    0.0533     H
  O390    0.3168    0.8188    0.3120     O
  H391    0.3574    0.8569    0.3130     H
  H392    0.3059    0.8072    0.3389     H
  O393    0.1186    0.8163    0.2175     O
  H394    0.1403    0.7709    0.2057     H
  H395    0.1201    0.8553    0.1973     H
  O396    0.7767    0.2772    0.3901     O
  H397    0.7916    0.2902    0.3644     H
  H398    0.8097    0.3094    0.4066     H
  O399    0.6850    0.5669    0.1871     O
  H400    0.6443    0.6056    0.1884     H
  H401    0.6968    0.5553    0.2136     H
  O402    0.5647    0.8754    0.7857     O
  H403    0.5862    0.8961    0.7625     H
  H404    0.5526    0.8216    0.7794     H
  O405    0.6779    0.3704    0.5915     O
  H406    0.7269    0.3958    0.5836     H
  H407    0.6637    0.3955    0.6145     H
  O408    0.3185    0.9346    0.5617     O
  H409    0.3064    0.9449    0.5349     H
  H410    0.3572    0.8944    0.5608     H
  O411    0.9333    0.6259    0.7145     O
  H412    0.9458    0.6791    0.7207     H
  H413    0.9125    0.6051    0.7382     H
  O414    0.9313    0.9324    0.5658     O
  H415    0.9779    0.9161    0.5531     H
  H416    0.9161    0.9794    0.5522     H
  O417    0.3746    0.6769    0.5917     O
  H418    0.3208    0.6893    0.5979     H
  H419    0.3953    0.7237    0.5814     H
  O420    0.3184    0.6239    0.7174     O
  H421    0.3072    0.5704    0.7228     H
  H422    0.3575    0.6223    0.6973     H
  O423    0.8169    0.4307    0.5596     O
  H424    0.8400    0.4778    0.5707     H
  H425    0.8573    0.3935    0.5604     H
  O426    0.8722    0.3750    0.9349     O
  H427    0.8415    0.4064    0.9517     H
  H428    0.9037    0.3435    0.9523     H
  O429    0.3211    0.6295    0.9106     O
  H430    0.3360    0.6049    0.8868     H
  H431    0.2728    0.6045    0.9177     H
  O432    0.4361    0.1227    0.9090     O
  H433    0.3958    0.1205    0.9286     H
  H434    0.4463    0.0696    0.9028     H
  O435    0.2188    0.2228    0.8597     O
  H436    0.2707    0.2095    0.8532     H
  H437    0.1870    0.1894    0.8432     H
  O438    0.6245    0.4362    0.9674     O
  H439    0.6779    0.4477    0.9727     H
  H440    0.6262    0.3959    0.9478     H
  O441    0.6203    0.4270    0.6588     O
  H442    0.5675    0.4409    0.6529     H
  H443    0.6430    0.4739    0.6690     H
  O444    0.1265    0.8170    0.9079     O
  H445    0.1800    0.8056    0.9025     H
  H446    0.1282    0.8566    0.9277     H
  O447    0.2788    0.7825    0.8898     O
  H448    0.2919    0.7296    0.8962     H
  H449    0.3118    0.8135    0.9061     H
  O450    0.4296    0.4384    0.5664     O
  H451    0.3922    0.3978    0.5656     H
  H452    0.4763    0.4155    0.5552     H
  O453    0.2188    0.0300    0.7656     O
  H454    0.2709    0.0430    0.7721     H
  H455    0.1872    0.0638    0.7819     H
  O456    0.6172    0.8166    0.9652     O
  H457    0.6198    0.8571    0.9463     H
  H458    0.6387    0.8394    0.9886     H
  O459    0.1811    0.8760    0.7823     O
  H460    0.2271    0.8548    0.7938     H
  H461    0.1940    0.9296    0.7769     H
  O462    0.1847    0.0726    0.6879     O
  H463    0.1972    0.0605    0.7147     H
  H464    0.1635    0.0255    0.6778     H
  O465    0.4688    0.4731    0.6428     O
  H466    0.4364    0.4392    0.6580     H
  H467    0.4562    0.4607    0.6163     H
  O468    0.9286    0.1199    0.6599     O
  H469    0.9416    0.0681    0.6535     H
  H470    0.9767    0.1419    0.6703     H
  O471    0.8753    0.8767    0.6897     O
  H472    0.8437    0.8458    0.6723     H
  H473    0.9064    0.9081    0.6728     H
  O474    0.1280    0.4337    0.7190     O
  H475    0.1071    0.4783    0.7074     H
  H476    0.1277    0.3943    0.6982     H
  O477    0.1760    0.8711    0.5907     O
  H478    0.1885    0.8195    0.5970     H
  H479    0.2245    0.8930    0.5802     H
  O480    0.4319    0.9339    0.8139     O
  H481    0.4769    0.9112    0.8035     H
  H482    0.3933    0.8916    0.8142     H
  O483    0.1233    0.3197    0.9654     O
  H484    0.0700    0.3058    0.9718     H
  H485    0.1437    0.3410    0.9888     H
  O486    0.6797    0.0620    0.9407     O
  H487    0.7269    0.0853    0.9298     H
  H488    0.6429    0.1026    0.9405     H
  O489    0.8131    0.8204    0.5664     O
  H490    0.8542    0.8582    0.5655     H
  H491    0.8355    0.7742    0.5553     H
  O492    0.8791    0.0706    0.8402     O
  H493    0.9314    0.0570    0.8470     H
  H494    0.8574    0.0235    0.8295     H
  O495    0.9653    0.9716    0.6427     O
  H496    1.0188    0.9573    0.6474     H
  H497    0.9566    0.9581    0.6160     H
  O498    0.0678    0.6789    0.9423     O
  H499    0.0844    0.7267    0.9288     H
  H500    0.0222    0.6638    0.9294     H
  O501    0.7169    0.7157    0.8610     O
  H502    0.7070    0.7688    0.8538     H
  H503    0.7701    0.7068    0.8537     H
  O504    0.8706    0.1801    0.5905     O
  H505    0.8914    0.1589    0.6145     H
  H506    0.8184    0.1940    0.5968     H
  O507    0.5346    0.5314    0.8576     O
  H508    0.4808    0.5452    0.8529     H
  H509    0.5431    0.5444    0.8843     H
  O510    0.6858    0.8705    0.8403     O
  H511    0.6441    0.8720    0.8215     H
  H512    0.6636    0.8917    0.8635     H
  O513    0.0661    0.8778    0.8422     O
  H514    0.1077    0.8771    0.8224     H
  H515    0.0894    0.8573    0.8645     H
  O516    0.5642    0.3739    0.8403     O
  H517    0.5538    0.4277    0.8463     H
  H518    0.6043    0.3758    0.8210     H
  O519    0.3212    0.3185    0.5634     O
  H520    0.3084    0.3064    0.5897     H
  H521    0.2738    0.3399    0.5527     H
  O522    0.3167    0.1313    0.6562     O
  H523    0.2720    0.1100    0.6679     H
  H524    0.3558    0.1311    0.6770     H
  O525    0.1192    0.4376    0.9102     O
  H526    0.1400    0.4136    0.8867     H
  H527    0.1203    0.3975    0.9290     H
  O528    0.8708    0.0659    0.5328     O
  H529    0.8711    0.1064    0.5523     H
  H530    0.8914    0.0903    0.5100     H
  O531    0.0681    0.0656    0.9348     O
  H532    0.1068    0.1058    0.9351     H
  H533    0.0227    0.0894    0.9461     H
  O534    0.8802    0.1879    0.7829     O
  H535    0.8586    0.1647    0.7603     H
  H536    0.8802    0.1465    0.8022     H
  O537    0.2833    0.2864    0.6401     O
  H538    0.2925    0.2327    0.6466     H
  H539    0.2297    0.2949    0.6465     H
  O540    0.3695    0.5670    0.5325     O
  H541    0.3708    0.6059    0.5530     H
  H542    0.3905    0.5215    0.5441     H
  O543    0.1264    0.6222    0.5658     O
  H544    0.0950    0.6540    0.5487     H
  H545    0.1578    0.5917    0.5486     H
  O546    0.8706    0.6824    0.8394     O
  H547    0.8961    0.7280    0.8322     H
  H548    0.8963    0.6661    0.8638     H
  O549    0.9645    0.4734    0.8887     O
  H550    0.9330    0.4405    0.9048     H
  H551    1.0172    0.4605    0.8957     H
  O552    0.6839    0.6787    0.9364     O
  H553    0.6615    0.7264    0.9468     H
  H554    0.6964    0.6910    0.9103     H
  O555    0.6840    0.3754    0.7845     O
  H556    0.6950    0.4300    0.7785     H
  H557    0.6614    0.3555    0.7616     H
  O558    0.4634    0.7849    0.9843     O
  H559    0.5173    0.7947    0.9774     H
  H560    0.4552    0.7318    0.9779     H
  O561    0.0673    0.1840    0.6882     O
  H562    0.1075    0.1445    0.6891     H
  H563    0.0554    0.1941    0.7149     H
  O564    0.3199    0.4358    0.8087     O
  H565    0.3579    0.3957    0.8094     H
  H566    0.2733    0.4120    0.8193     H
  O567    0.4324    0.6333    0.9686     O
  H568    0.3936    0.6312    0.9485     H
  H569    0.4779    0.6105    0.9569     H
  O570    0.5345    0.2224    0.5161     O
  H571    0.4815    0.2068    0.5211     H
  H572    0.5437    0.2076    0.4896     H
  O573    0.6242    0.9347    0.7177     O
  H574    0.6777    0.9461    0.7228     H
  H575    0.6256    0.8949    0.6979     H
  O576    0.4267    0.8185    0.5624     O
  H577    0.4393    0.8061    0.5357     H
  H578    0.4739    0.8387    0.5730     H
  O579    0.7201    0.2183    0.6071     O
  H580    0.7058    0.2081    0.6339     H
  H581    0.7058    0.2713    0.6029     H
  O582    0.5668    0.3749    0.5325     O
  H583    0.6055    0.3730    0.5530     H
  H584    0.5557    0.3217    0.5269     H
  O585    0.1788    0.6812    0.6832     O
  H586    0.2263    0.6650    0.6962     H
  H587    0.1638    0.7275    0.6963     H
  O588    0.6835    0.1831    0.6845     O
  H589    0.6597    0.2293    0.6958     H
  H590    0.6434    0.1452    0.6848     H
  O591    0.0728    0.3779    0.5916     O
  H592    0.0253    0.3562    0.5810     H
  H593    0.0600    0.4305    0.5975     H
  O594    0.9317    0.3238    0.5618     O
  H595    0.9453    0.3105    0.5359     H
  H596    0.9103    0.2762    0.5727     H
  O597    0.0670    0.5620    0.6843     O
  H598    0.0216    0.5848    0.6952     H
  H599    0.1053    0.6035    0.6845     H
  O600    0.9692    0.2820    0.9836     O
  H601    0.9560    0.2293    0.9796     H
  H602    0.9546    0.2923    1.0106     H
  O603    0.5329    0.0320    0.6103     O
  H604    0.4797    0.0445    0.6032     H
  H605    0.5639    0.0637    0.5938     H
  O606    0.8205    0.6309    0.6573     O
  H607    0.7743    0.6084    0.6686     H
  H608    0.8582    0.6293    0.6778     H
  O609    0.3659    0.0670    0.7840     O
  H610    0.3926    0.0208    0.7916     H
  H611    0.3929    0.0844    0.7609     H
  O612    0.1301    0.3191    0.6586     O
  H613    0.1043    0.3342    0.6353     H
  H614    0.1041    0.2716    0.6666     H
  O615    0.8712    0.5678    0.7833     O
  H616    0.8727    0.6066    0.8035     H
  H617    0.8926    0.5221    0.7952     H
  O618    0.9382    0.1334    0.9673     O
  H619    0.9155    0.1107    0.9897     H
  H620    0.8975    0.1312    0.9477     H
  O621    0.3767    0.3727    0.6860     O
  H622    0.3430    0.4054    0.7022     H
  H623    0.3421    0.3431    0.6709     H
  O624    0.2826    0.9642    0.9830     O
  H625    0.2964    1.0181    0.9784     H
  H626    0.2949    0.9557    1.0097     H
  O627    0.1823    0.3715    0.8406     O
  H628    0.1940    0.3179    0.8461     H
  H629    0.1422    0.3694    0.8211     H
  O630    0.8208    0.9346    0.8102     O
  H631    0.8083    0.9464    0.7837     H
  H632    0.7736    0.9131    0.8208     H
  O633    0.3778    0.8720    0.9368     O
  H634    0.3457    0.9044    0.9540     H
  H635    0.4078    0.8415    0.9538     H
  O636    0.8170    0.6158    0.9656     O
  H637    0.8335    0.6421    0.9894     H
  H638    0.7716    0.6426    0.9579     H
  O639    0.6258    0.1200    0.5624     O
  H640    0.5944    0.1542    0.5465     H
  H641    0.6568    0.1542    0.5778     H
  O642    0.6225    0.6241    0.8103     O
  H643    0.5922    0.5935    0.8271     H
  H644    0.6551    0.6557    0.8276     H
  O645    0.1832    0.5684    0.9398     O
  H646    0.1416    0.6064    0.9399     H
  H647    0.1601    0.5225    0.9294     H
  O648    0.5676    0.6791    0.6918     O
  H649    0.5211    0.6643    0.6788     H
  H650    0.5841    0.7264    0.6787     H
  O651    0.7806    0.9675    0.7341     O
  H652    0.7937    1.0205    0.7276     H
  H653    0.8138    0.9367    0.7179     H
  O654    0.1216    0.9351    0.6603     O
  H655    0.1222    0.8944    0.6791     H
  H656    0.1415    0.9112    0.6368     H
  O657    0.1831    0.1768    0.9359     O
  H658    0.1959    0.1902    0.9098     H
  H659    0.1622    0.2244    0.9469     H
  O660    0.3792    0.0689    0.5894     O
  H661    0.3531    0.0846    0.6133     H
  H662    0.3542    0.0218    0.5821     H
  O663    0.8781    0.6857    0.5339     O
  H664    0.8581    0.6618    0.5109     H
  H665    0.8783    0.6445    0.5531     H
  O666    0.7775    0.4677    0.9815     O
  H667    0.7930    0.4571    1.0088     H
  H668    0.7912    0.5194    0.9774     H
  O669    0.7138    0.5322    0.7645     O
  H670    0.6832    0.5637    0.7808     H
  H671    0.7676    0.5445    0.7717     H
  O672    0.9357    0.6236    0.9098     O
  H673    0.9455    0.5710    0.9032     H
  H674    0.8945    0.6212    0.9292     H
  O675    0.0694    0.3687    0.7859     O
  H676    0.0846    0.3948    0.7623     H
  H677    0.0225    0.3944    0.7938     H
  O678    0.2180    0.7224    0.6084     O
  H679    0.2054    0.7091    0.6347     H
  H680    0.1866    0.6881    0.5928     H
  O681    0.6758    0.8793    0.5337     O
  H682    0.7234    0.8579    0.5447     H
  H683    0.6888    0.9311    0.5270     H
  O684    0.8173    0.1198    0.7180     O
  H685    0.7713    0.1418    0.7061     H
  H686    0.8553    0.1200    0.6977     H
  O687    0.9717    0.7798    0.7337     O
  H688    0.9387    0.8130    0.7181     H
  H689    0.9585    0.7925    0.7600     H
  O690    0.6271    0.3190    0.9121     O
  H691    0.6050    0.3388    0.8880     H
  H692    0.6795    0.3069    0.9057     H
  O693    0.4328    0.3217    0.8087     O
  H694    0.4788    0.3358    0.8215     H
  H695    0.4158    0.2737    0.8219     H
  O696    0.3218    0.1161    0.9647     O
  H697    0.3360    0.1414    0.9884     H
  H698    0.2741    0.1416    0.9568     H
  O699    0.4715    0.2784    0.7331     O
  H700    0.4380    0.3105    0.7172     H
  H701    0.4589    0.2925    0.7592     H
  O702    0.1258    0.9291    0.9659     O
  H703    0.1795    0.9412    0.9723     H
  H704    0.1055    0.9762    0.9555     H
  O705    0.0356    0.7181    0.5168     O
  H706    0.0444    0.7047    0.4904     H
  H707   -0.0187    0.7050    0.5214     H
  O708    0.0650    0.8730    0.5345     O
  H709    0.1045    0.8709    0.5538     H
  H710    0.0546    0.8188    0.5283     H
  O711    0.4698    0.9732    0.8907     O
  H712    0.4387    0.9390    0.9068     H
  H713    0.4570    0.9586    0.8646     H
  O714    0.0282    0.0325    0.8583     O
  H715    0.0425    0.0427    0.8847     H
  H716    0.0432   -0.0209    0.8540     H
  O717    0.9345    0.4340    0.8140     O
  H718    0.8942    0.3946    0.8148     H
  H719    0.9445    0.4460    0.8406     H
  O720    0.4298    0.1304    0.7163     O
  H721    0.4425    0.1823    0.7224     H
  H722    0.4776    0.1088    0.7052     H
  O723    0.9330    0.8129    0.8101     O
  H724    0.8949    0.8546    0.8101     H
  H725    0.9785    0.8356    0.8210     H
  O726    0.2860    0.4717    0.7332     O
  H727    0.2315    0.4581    0.7288     H
  H728    0.2954    0.4575    0.7593     H
  O729    0.6252    0.9291    0.9089     O
  H730    0.5711    0.9420    0.9022     H
  H731    0.6453    0.9751    0.9196     H
  O732    0.3690    0.1877    0.8405     O
  H733    0.3909    0.1645    0.8635     H
  H734    0.3692    0.1466    0.8216     H
  O735    0.5277    0.7205    0.7663     O
  H736    0.5603    0.6874    0.7821     H
  H737    0.5408    0.7070    0.7401     H
  O738    0.3817    0.5695    0.8427     O
  H739    0.3803    0.6072    0.8226     H
  H740    0.3602    0.5227    0.8309     H
  O741    0.3811    0.1790    0.5330     O
  H742    0.3788    0.1418    0.5532     H
  H743    0.3592    0.2262    0.5444     H
  O744    0.8188    0.1258    0.9106     O
  H745    0.8059    0.1792    0.9044     H
  H746    0.8397    0.1052    0.8871     H
  O747    0.7161    0.0278    0.5135     O
  H748    0.6851    0.0601    0.5299     H
  H749    0.7691    0.0416    0.5198     H
  O750    0.2170    0.5341    0.5142     O
  H751    0.2070    0.4810    0.5212     H
  H752    0.2704    0.5426    0.5216     H
  O753    0.3769    0.6810    0.7865     O
  H754    0.3559    0.6601    0.7629     H
  H755    0.4298    0.6942    0.7801     H
  O756    0.5715    0.1773    0.9422     O
  H757    0.5249    0.1623    0.9294     H
  H758    0.5866    0.2257    0.9296     H
  O759    0.0324    0.2135    0.7642     O
  H760    0.0427    0.2676    0.7716     H
  H761   -0.0201    0.2053    0.7709     H
  O762    0.7796    0.7872    0.6410     O
  H763    0.7933    0.7958    0.6150     H
  H764    0.7944    0.7327    0.6459     H
  O765    0.5694    0.0731    0.6853     O
  H766    0.5564    0.0601    0.6591     H
  H767    0.5893    0.0252    0.6962     H
  O768    0.4320    0.6249    0.6609     O
  H769    0.4114    0.6452    0.6372     H
  H770    0.4443    0.5713    0.6550     H
  O771    0.5651    0.8733    0.5913     O
  H772    0.5537    0.9278    0.5974     H
  H773    0.6037    0.8757    0.5719     H
  O774    0.6267    0.8161    0.6606     O
  H775    0.6797    0.8049    0.6542     H
  H776    0.6048    0.8369    0.6370     H
  O777    0.5618    0.5669    0.9335     O
  H778    0.6031    0.6059    0.9342     H
  H779    0.5842    0.5221    0.9447     H
  O780    0.8785    0.5683    0.5896     O
  H781    0.8579    0.5896    0.6136     H
  H782    0.9309    0.5550    0.5957     H
  O783    0.0267    0.5279    0.6070     O
  H784    0.0604    0.5598    0.5919     H
  H785    0.0398    0.5402    0.6337     H
  O786    0.8203    0.3225    0.8162     O
  H787    0.8365    0.2752    0.8032     H
  H788    0.7736    0.3374    0.8032     H
  O789    0.6212    0.3181    0.7180     O
  H790    0.5681    0.3059    0.7230     H
  H791    0.6192    0.3569    0.6975     H
  O792    0.1297    0.1257    0.8116     O
  H793    0.0956    0.1558    0.7961     H
  H794    0.0955    0.0938    0.8276     H
  O795    0.1836    0.3826    0.5331     O
  H796    0.1609    0.3602    0.5106     H
  H797    0.1426    0.3807    0.5527     H
  O798    0.3157    0.8184    0.8150     O
  H799    0.3037    0.8060    0.8413     H
  H800    0.3375    0.7710    0.8044     H
  O801    0.1234    0.8187    0.7154     O
  H802    0.0698    0.8061    0.7220     H
  H803    0.1446    0.8393    0.7388     H
  O804    0.7788    0.2821    0.8914     O
  H805    0.8112    0.3143    0.9071     H
  H806    0.7926    0.2955    0.8649     H
  O807    0.6856    0.5641    0.6871     O
  H808    0.6962    0.5535    0.7137     H
  H809    0.6451    0.6037    0.6878     H
 Cl810    0.6819    0.3730    0.0901    Cl
 Na811    0.5689    0.8686    0.2853    Na

